; Filename: ../Data/Anytown/ATM.inp
; WNTR: 0.4.0
; Created: 2024-12-16 08:45:53
[TITLE]
Any Town MOdified. Optimal results

[JUNCTIONS]
;ID  Elevation  Demand Pattern  
 20  6.096  31.55 DEM  ;
 30  15.24  12.62 DEM  ;
 110  15.24  31.55 DEM  ;
 70  15.24  31.55 DEM  ;
 60  15.24  31.55 DEM  ;
 90  15.24  63.09 DEM90  ;
 100  15.24  31.55 DEM  ;
 40  15.24  12.62 DEM  ;
 50  15.24  12.62 DEM  ;
 80  15.24  31.55 DEM  ;
 150  36.576  12.62 DEM  ;
 140  24.384  12.62 DEM  ;
 170  36.576  12.62 DEM170  ;
 130  36.576  12.62 DEM  ;
 160  36.576  50.47 DEM  ;
 120  36.576  12.62 DEM  ;
 55  24.384  6.31 DEM55  ;
 75  24.384  6.31 DEM  ;
 115  24.384  6.31 DEM  ;

[RESERVOIRS]
;ID  Head  Pattern
 10  3.048  ;

[TANKS]
;ID  Elevation  Init Level  Min Level  Max Level  Diameter  Min Volume Volume Curve  Overflow  
 65  0  66.93  66.53  71.53  21.55  0  ;
 165  0  66.93  66.53  71.53  21.55  0  ;
 265  0  66.93  66.53  71.53  21.55  0  ;

[PIPES]
;ID  Node1  Node2  Length  Diameter  Roughness  Minor Loss  Status
 4  20  30  3657.6  609.6  120  0  Open  ;
 30  30  60  1828.8  508  120  0  Open  ;
 16  60  90  1828.8  152.4  120  0  Open  ;
 14  70  60  1828.8  406.4  120  0  Open  ;
 12  70  90  1828.8  254  120  0  Open  ;
 2  20  70  3657.6  609.6  120  0  Open  ;
 6  20  110  3657.6  457.2  120  0  Open  ;
 48  110  100  1828.8  304.8  120  0  Open  ;
 24  100  90  1828.8  508  120  0  Open  ;
 10  70  100  1828.8  609.6  120  0  Open  ;
 32  30  40  1828.8  203.2  120  0  Open  ;
 36  40  50  1828.8  304.8  120  0  Open  ;
 38  50  80  1828.8  203.2  120  0  Open  ;
 18  80  60  1828.8  457.2  120  0  Open  ;
 20  80  90  1828.8  406.4  120  0  Open  ;
 66  50  140  3657.6  203.2  120  0  Open  ;
 40  140  80  1828.8  304.8  120  0  Open  ;
 28  80  150  1828.8  457.2  120  0  Open  ;
 22  150  90  1828.8  152.4  120  0  Open  ;
 26  150  100  1828.8  609.6  120  0  Open  ;
 42  150  140  1828.8  508  120  0  Open  ;
 64  140  170  3657.6  304.8  120  0  Open  ;
 60  170  130  1828.8  304.8  120  0  Open  ;
 58  130  160  1828.8  406.4  120  0  Open  ;
 44  160  150  1828.8  355.6  120  0  Open  ;
 50  160  110  1828.8  304.8  120  0  Open  ;
 52  110  120  1828.8  355.6  120  0  Open  ;
 56  120  130  1828.8  304.8  120  0  Open  ;
 62  140  160  1828.8  508  120  0  Open  ;
 46  100  160  1828.8  457.2  120  0  Open  ;
 34  50  30  2743.2  355.6  120  0  Open  ;
 78  65  60  30.48  508  120  0  Open  ;
 80  165  160  30.48  406.4  120  0  Open  ;
 8  70  30  2743.2  355.6  120  0  Open  ;
 74  50  55  1828.8  304.8  120  0  Open  ;
 76  55  75  1828.8  304.8  120  0  Open  ;
 72  75  115  1828.8  304.8  120  0  Open  ;
 68  115  140  1828.8  304.8  120  0  Open  ;
 70  75  140  1828.8  304.8  120  0  Open  ;
 178  140  265  30.48  406.4  120  0  Open  ;
 54  160  120  2743.2  304.8  120  0  Open  ;

[PUMPS]
;ID  Node1  Node2  Properties  
 b2  10  20  HEAD  1  ;
 b1  10  20  HEAD  1  ;
 b3  10  20  HEAD  1  ;

[VALVES]
;ID  Node1  Node2  Diameter Type  Setting  Minor Loss

[TAGS]
;type  name  tag  

[DEMANDS]
;ID  Demand  Pattern  

[STATUS]
;ID  Setting  

[PATTERNS]
;ID  Multipliers

DEM 0.700000 0.697222 0.694444 0.691667 0.688889 0.686111
DEM 0.683333 0.680556 0.677778 0.675000 0.672222 0.669444
DEM 0.666667 0.663889 0.661111 0.658333 0.655556 0.652778
DEM 0.650000 0.647222 0.644444 0.641667 0.638889 0.636111
DEM 0.633333 0.630556 0.627778 0.625000 0.622222 0.619444
DEM 0.616667 0.613889 0.611111 0.608333 0.605556 0.602778
DEM 0.600000 0.616667 0.633333 0.650000 0.666667 0.683333
DEM 0.700000 0.716667 0.733333 0.750000 0.766667 0.783333
DEM 0.800000 0.816667 0.833333 0.850000 0.866667 0.883333
DEM 0.900000 0.916667 0.933333 0.950000 0.966667 0.983333
DEM 1.000000 1.016667 1.033333 1.050000 1.066667 1.083333
DEM 1.100000 1.116667 1.133333 1.150000 1.166667 1.183333
DEM 1.200000 1.202778 1.205556 1.208333 1.211111 1.213889
DEM 1.216667 1.219444 1.222222 1.225000 1.227778 1.230556
DEM 1.233333 1.236111 1.238889 1.241667 1.244444 1.247222
DEM 1.250000 1.252778 1.255556 1.258333 1.261111 1.263889
DEM 1.266667 1.269444 1.272222 1.275000 1.277778 1.280556
DEM 1.283333 1.286111 1.288889 1.291667 1.294444 1.297222
DEM 1.300000 1.297222 1.294444 1.291667 1.288889 1.286111
DEM 1.283333 1.280556 1.277778 1.275000 1.272222 1.269444
DEM 1.266667 1.263889 1.261111 1.258333 1.255556 1.252778
DEM 1.250000 1.247222 1.244444 1.241667 1.238889 1.236111
DEM 1.233333 1.230556 1.227778 1.225000 1.222222 1.219444
DEM 1.216667 1.213889 1.211111 1.208333 1.205556 1.202778
DEM 1.200000 1.194444 1.188889 1.183333 1.177778 1.172222
DEM 1.166667 1.161111 1.155556 1.150000 1.144444 1.138889
DEM 1.133333 1.127778 1.122222 1.116667 1.111111 1.105556
DEM 1.100000 1.094444 1.088889 1.083333 1.077778 1.072222
DEM 1.066667 1.061111 1.055556 1.050000 1.044444 1.038889
DEM 1.033333 1.027778 1.022222 1.016667 1.011111 1.005556
DEM 1.000000 0.997222 0.994444 0.991667 0.988889 0.986111
DEM 0.983333 0.980556 0.977778 0.975000 0.972222 0.969444
DEM 0.966667 0.963889 0.961111 0.958333 0.955556 0.952778
DEM 0.950000 0.947222 0.944444 0.941667 0.938889 0.936111
DEM 0.933333 0.930556 0.927778 0.925000 0.922222 0.919444
DEM 0.916667 0.913889 0.911111 0.908333 0.905556 0.902778
DEM 0.900000 0.894444 0.888889 0.883333 0.877778 0.872222
DEM 0.866667 0.861111 0.855556 0.850000 0.844444 0.838889
DEM 0.833333 0.827778 0.822222 0.816667 0.811111 0.805556
DEM 0.800000 0.794444 0.788889 0.783333 0.777778 0.772222
DEM 0.766667 0.761111 0.755556 0.750000 0.744444 0.738889
DEM 0.733333 0.727778 0.722222 0.716667 0.711111 0.705556
DEM 0.700000 0.700000 0.700000 0.700000 0.700000 0.700000
DEM 0.700000 0.700000 0.700000 0.700000 0.700000 0.700000
DEM 0.700000 0.700000 0.700000 0.700000 0.700000 0.700000
DEM 0.700000 0.700000 0.700000 0.700000 0.700000 0.700000
DEM 0.700000 0.700000 0.700000 0.700000 0.700000 0.700000
DEM 0.700000 0.700000 0.700000 0.700000 0.700000 0.700000

p_b1 1.000000 1.000000 1.000000 1.000000 1.000000 1.000000
p_b1 1.000000 1.000000 0.000000 0.000000 1.000000 1.000000
p_b1 1.000000 0.000000 1.000000 1.000000 1.000000 0.000000
p_b1 0.000000 0.000000 0.000000 1.000000 1.000000 0.000000

p_b2 1.000000 0.000000 0.000000 1.000000 0.000000 0.000000
p_b2 0.000000 0.000000 0.000000 0.000000 1.000000 1.000000
p_b2 1.000000 0.000000 1.000000 1.000000 1.000000 0.000000
p_b2 0.000000 0.000000 0.000000 0.000000 0.000000 0.000000

p_b3 0.000000 0.000000 0.000000 0.000000 0.000000 0.000000
p_b3 0.000000 0.000000 0.000000 0.000000 0.000000 1.000000
p_b3 1.000000 0.000000 0.000000 0.000000 0.000000 1.000000
p_b3 0.000000 0.000000 0.000000 1.000000 0.000000 0.000000

tarif 0.181400 0.181400 0.181400 0.181400 0.181400 0.181400
tarif 0.181400 0.352800 0.352800 0.352800 0.352800 0.352800
tarif 0.352800 0.352800 0.352800 0.352800 0.352800 0.809700
tarif 0.809700 0.809700 0.809700 0.181400 0.181400 0.181400

DEM90 0.700000 0.697222 0.694444 0.691667 0.688889 0.686111
DEM90 0.683333 0.680556 0.677778 0.675000 0.672222 0.669444
DEM90 0.666667 0.663889 0.661111 0.658333 0.655556 0.652778
DEM90 0.650000 0.647222 0.644444 0.641667 0.638889 0.636111
DEM90 0.633333 0.630556 0.627778 0.625000 0.622222 0.619444
DEM90 0.616667 0.613889 0.611111 0.608333 0.605556 0.602778
DEM90 0.600000 0.616667 0.633333 0.650000 0.666667 0.683333
DEM90 0.700000 0.716667 0.733333 0.750000 0.766667 0.783333
DEM90 0.800000 0.816667 0.833333 0.850000 0.866667 0.883333
DEM90 0.900000 0.916667 0.933333 0.950000 0.966667 0.983333
DEM90 1.000000 1.016667 1.033333 1.050000 1.066667 1.083333
DEM90 1.100000 1.116667 1.133333 1.150000 1.166667 1.183333
DEM90 1.200000 1.202778 1.205556 1.208333 1.211111 1.213889
DEM90 1.216667 1.219444 1.222222 1.225000 1.227778 1.230556
DEM90 1.233333 1.236111 1.238889 1.241667 1.244444 1.247222
DEM90 1.250000 1.252778 1.255556 1.258333 1.261111 1.263889
DEM90 1.266667 1.269444 1.272222 1.275000 1.277778 1.280556
DEM90 1.283333 1.286111 1.288889 1.291667 1.294444 1.297222
DEM90 1.300000 1.297222 1.294444 1.291667 1.288889 1.286111
DEM90 1.283333 1.280556 1.277778 1.275000 1.272222 1.269444
DEM90 1.266667 1.263889 1.261111 1.258333 1.255556 1.252778
DEM90 1.250000 1.247222 1.244444 1.241667 1.238889 1.236111
DEM90 1.233333 1.230556 1.227778 1.225000 1.222222 1.219444
DEM90 1.216667 1.213889 1.211111 1.208333 1.205556 1.202778
DEM90 1.200000 1.194444 1.188889 1.183333 1.177778 1.172222
DEM90 1.166667 1.161111 1.155556 1.150000 1.144444 1.138889
DEM90 1.133333 1.127778 1.122222 1.116667 1.111111 1.105556
DEM90 1.100000 1.094444 1.088889 1.083333 1.077778 1.072222
DEM90 1.066667 1.061111 1.055556 1.050000 1.044444 1.038889
DEM90 1.033333 1.027778 1.022222 1.016667 1.011111 1.005556
DEM90 1.000000 0.997222 0.994444 0.991667 0.988889 0.986111
DEM90 0.983333 0.980556 0.977778 0.975000 0.972222 0.969444
DEM90 0.966667 0.963889 0.961111 0.958333 0.955556 0.952778
DEM90 0.950000 0.947222 0.944444 0.941667 0.938889 0.936111
DEM90 0.933333 0.930556 0.927778 0.925000 0.922222 0.919444
DEM90 0.916667 0.913889 0.911111 0.908333 0.905556 0.902778
DEM90 0.900000 0.894444 0.888889 0.883333 0.877778 0.872222
DEM90 0.866667 0.861111 0.855556 0.850000 0.844444 0.838889
DEM90 0.833333 0.827778 0.822222 0.816667 0.811111 0.805556
DEM90 0.800000 0.794444 0.788889 0.783333 0.777778 0.772222
DEM90 0.766667 0.761111 0.755556 0.750000 0.744444 0.738889
DEM90 0.733333 0.727778 0.722222 0.716667 0.711111 0.705556
DEM90 0.700000 0.700000 0.700000 0.700000 0.700000 0.700000
DEM90 0.700000 0.700000 0.700000 0.700000 0.700000 0.700000
DEM90 0.700000 0.700000 0.700000 0.700000 0.700000 0.700000
DEM90 0.700000 0.700000 0.700000 0.700000 0.700000 0.700000
DEM90 0.700000 0.700000 0.700000 0.700000 0.700000 0.700000
DEM90 0.700000 0.700000 0.700000 0.700000 0.700000 0.700000

DEM55 0.700000 0.697222 0.694444 0.691667 0.688889 0.686111
DEM55 0.683333 0.680556 0.677778 0.675000 0.672222 0.669444
DEM55 0.666667 0.663889 0.661111 0.658333 0.655556 0.652778
DEM55 0.650000 0.647222 0.644444 0.641667 0.638889 0.636111
DEM55 0.633333 0.630556 0.627778 0.625000 0.622222 0.619444
DEM55 0.616667 0.613889 0.611111 0.608333 0.605556 0.602778
DEM55 0.600000 0.616667 0.633333 0.650000 0.666667 0.683333
DEM55 0.700000 0.716667 0.733333 0.750000 0.766667 0.783333
DEM55 0.800000 0.816667 0.833333 0.850000 0.866667 0.883333
DEM55 0.900000 0.916667 0.933333 0.950000 0.966667 0.983333
DEM55 1.000000 1.016667 1.033333 1.050000 1.066667 1.083333
DEM55 1.100000 1.116667 1.133333 1.150000 1.166667 1.183333
DEM55 1.200000 1.202778 1.205556 1.208333 1.211111 1.213889
DEM55 1.216667 1.219444 1.222222 1.225000 1.227778 1.230556
DEM55 1.233333 1.236111 1.238889 1.241667 1.244444 1.247222
DEM55 1.250000 1.252778 1.255556 1.258333 1.261111 1.263889
DEM55 1.266667 1.269444 1.272222 1.275000 1.277778 1.280556
DEM55 1.283333 1.286111 1.288889 1.291667 1.294444 1.297222
DEM55 1.300000 1.297222 1.294444 1.291667 1.288889 1.286111
DEM55 1.283333 1.280556 1.277778 1.275000 1.272222 1.269444
DEM55 1.266667 1.263889 1.261111 1.258333 1.255556 1.252778
DEM55 1.250000 1.247222 1.244444 1.241667 1.238889 1.236111
DEM55 1.233333 1.230556 1.227778 1.225000 1.222222 1.219444
DEM55 1.216667 1.213889 1.211111 1.208333 1.205556 1.202778
DEM55 1.200000 1.194444 1.188889 1.183333 1.177778 1.172222
DEM55 1.166667 1.161111 1.155556 1.150000 1.144444 1.138889
DEM55 1.133333 1.127778 1.122222 1.116667 1.111111 1.105556
DEM55 1.100000 1.094444 1.088889 1.083333 1.077778 1.072222
DEM55 1.066667 1.061111 1.055556 1.050000 1.044444 1.038889
DEM55 1.033333 1.027778 1.022222 1.016667 1.011111 1.005556
DEM55 1.000000 0.997222 0.994444 0.991667 0.988889 0.986111
DEM55 0.983333 0.980556 0.977778 0.975000 0.972222 0.969444
DEM55 0.966667 0.963889 0.961111 0.958333 0.955556 0.952778
DEM55 0.950000 0.947222 0.944444 0.941667 0.938889 0.936111
DEM55 0.933333 0.930556 0.927778 0.925000 0.922222 0.919444
DEM55 0.916667 0.913889 0.911111 0.908333 0.905556 0.902778
DEM55 0.900000 0.894444 0.888889 0.883333 0.877778 0.872222
DEM55 0.866667 0.861111 0.855556 0.850000 0.844444 0.838889
DEM55 0.833333 0.827778 0.822222 0.816667 0.811111 0.805556
DEM55 0.800000 0.794444 0.788889 0.783333 0.777778 0.772222
DEM55 0.766667 0.761111 0.755556 0.750000 0.744444 0.738889
DEM55 0.733333 0.727778 0.722222 0.716667 0.711111 0.705556
DEM55 0.700000 0.700000 0.700000 0.700000 0.700000 0.700000
DEM55 0.700000 0.700000 0.700000 0.700000 0.700000 0.700000
DEM55 0.700000 0.700000 0.700000 0.700000 0.700000 0.700000
DEM55 0.700000 0.700000 0.700000 0.700000 0.700000 0.700000
DEM55 0.700000 0.700000 0.700000 0.700000 0.700000 0.700000
DEM55 0.700000 0.700000 0.700000 0.700000 0.700000 0.700000

DEM170 0.700000 0.697222 0.694444 0.691667 0.688889 0.686111
DEM170 0.683333 0.680556 0.677778 0.675000 0.672222 0.669444
DEM170 0.666667 0.663889 0.661111 0.658333 0.655556 0.652778
DEM170 0.650000 0.647222 0.644444 0.641667 0.638889 0.636111
DEM170 0.633333 0.630556 0.627778 0.625000 0.622222 0.619444
DEM170 0.616667 0.613889 0.611111 0.608333 0.605556 0.602778
DEM170 0.600000 0.616667 0.633333 0.650000 0.666667 0.683333
DEM170 0.700000 0.716667 0.733333 0.750000 0.766667 0.783333
DEM170 0.800000 0.816667 0.833333 0.850000 0.866667 0.883333
DEM170 0.900000 0.916667 0.933333 0.950000 0.966667 0.983333
DEM170 1.000000 1.016667 1.033333 1.050000 1.066667 1.083333
DEM170 1.100000 1.116667 1.133333 1.150000 1.166667 1.183333
DEM170 1.200000 1.202778 1.205556 1.208333 1.211111 1.213889
DEM170 1.216667 1.219444 1.222222 1.225000 1.227778 1.230556
DEM170 1.233333 1.236111 1.238889 1.241667 1.244444 1.247222
DEM170 1.250000 1.252778 1.255556 1.258333 1.261111 1.263889
DEM170 1.266667 1.269444 1.272222 1.275000 1.277778 1.280556
DEM170 1.283333 1.286111 1.288889 1.291667 1.294444 1.297222
DEM170 1.300000 1.297222 1.294444 1.291667 1.288889 1.286111
DEM170 1.283333 1.280556 1.277778 1.275000 1.272222 1.269444
DEM170 1.266667 1.263889 1.261111 1.258333 1.255556 1.252778
DEM170 1.250000 1.247222 1.244444 1.241667 1.238889 1.236111
DEM170 1.233333 1.230556 1.227778 1.225000 1.222222 1.219444
DEM170 1.216667 1.213889 1.211111 1.208333 1.205556 1.202778
DEM170 1.200000 1.194444 1.188889 1.183333 1.177778 1.172222
DEM170 1.166667 1.161111 1.155556 1.150000 1.144444 1.138889
DEM170 1.133333 1.127778 1.122222 1.116667 1.111111 1.105556
DEM170 1.100000 1.094444 1.088889 1.083333 1.077778 1.072222
DEM170 1.066667 1.061111 1.055556 1.050000 1.044444 1.038889
DEM170 1.033333 1.027778 1.022222 1.016667 1.011111 1.005556
DEM170 1.000000 0.997222 0.994444 0.991667 0.988889 0.986111
DEM170 0.983333 0.980556 0.977778 0.975000 0.972222 0.969444
DEM170 0.966667 0.963889 0.961111 0.958333 0.955556 0.952778
DEM170 0.950000 0.947222 0.944444 0.941667 0.938889 0.936111
DEM170 0.933333 0.930556 0.927778 0.925000 0.922222 0.919444
DEM170 0.916667 0.913889 0.911111 0.908333 0.905556 0.902778
DEM170 0.900000 0.894444 0.888889 0.883333 0.877778 0.872222
DEM170 0.866667 0.861111 0.855556 0.850000 0.844444 0.838889
DEM170 0.833333 0.827778 0.822222 0.816667 0.811111 0.805556
DEM170 0.800000 0.794444 0.788889 0.783333 0.777778 0.772222
DEM170 0.766667 0.761111 0.755556 0.750000 0.744444 0.738889
DEM170 0.733333 0.727778 0.722222 0.716667 0.711111 0.705556
DEM170 0.700000 0.700000 0.700000 0.700000 0.700000 0.700000
DEM170 0.700000 0.700000 0.700000 0.700000 0.700000 0.700000
DEM170 0.700000 0.700000 0.700000 0.700000 0.700000 0.700000
DEM170 0.700000 0.700000 0.700000 0.700000 0.700000 0.700000
DEM170 0.700000 0.700000 0.700000 0.700000 0.700000 0.700000
DEM170 0.700000 0.700000 0.700000 0.700000 0.700000 0.700000

[CURVES]
;ID  X-Value  Y-Value  
;PUMP: 1
 1  0.000000  91.440000  ;
 1  126.180000  89.001600  ;
 1  252.360000  82.296000  ;
 1  378.540000  70.104000  ;
 1  504.720000  55.168800  ;

;EFFICIENCY: 2
 2  0.000000  0.000000  ;
 2  126.180000  50.000000  ;
 2  252.360000  65.000000  ;
 2  378.540000  55.000000  ;
 2  504.720000  40.000000  ;


[CONTROLS]
Pump b1 1.0 AT TIME 0
Pump b1 1.0 AT TIME 0
Pump b1 1.0 AT TIME 0
Pump b1 1.0 AT TIME 0
Pump b1 1.0 AT TIME 0
Pump b1 1.0 AT TIME 0
Pump b1 1.0 AT TIME 0
Pump b1 1.0 AT TIME 0
Pump b1 1.0 AT TIME 0
Pump b1 1.0 AT TIME 0
Pump b1 1.0 AT TIME 0
Pump b1 1.0 AT TIME 0
Pump b1 1.0 AT TIME 0
Pump b1 1.0 AT TIME 0
Pump b1 1.0 AT TIME 0
Pump b1 1.0 AT TIME 0
Pump b1 1.0 AT TIME 0
Pump b1 1.0 AT TIME 0
Pump b1 1.0 AT TIME 0
Pump b1 1.0 AT TIME 0
Pump b1 1.0 AT TIME 0
Pump b1 1.0 AT TIME 0
Pump b1 1.0 AT TIME 0
Pump b1 1.0 AT TIME 0
Pump b1 1.0 AT TIME 0
Pump b1 1.0 AT TIME 0
Pump b1 1.0 AT TIME 0
Pump b1 1.0 AT TIME 0
Pump b1 1.0 AT TIME 0
Pump b1 1.0 AT TIME 0
Pump b1 1.0 AT TIME 0
Pump b1 1.0 AT TIME 0
Pump b1 1.0 AT TIME 0
Pump b1 1.0 AT TIME 0
Pump b1 1.0 AT TIME 0
Pump b1 1.0 AT TIME 0

[RULES]

[ENERGY]
GLOBAL EFFICIENCY  75.0000
GLOBAL PRICE  0.0000
DEMAND CHARGE  0.0000
PUMP b1  EFFIC  2
PUMP b1  PRICE  1.0000
PUMP b1  PATTERN tarif
PUMP b2  EFFIC  2
PUMP b2  PRICE  1.0000
PUMP b2  PATTERN tarif
PUMP b3  EFFIC  2
PUMP b3  PRICE  1.0000
PUMP b3  PATTERN tarif

[EMITTERS]
;ID  Flow coefficient

[QUALITY]

[SOURCES]
;Node  Type  Quality  Pattern  

[REACTIONS]
;Type  Pipe/Tank  Coefficient

 ORDER BULK 1
 ORDER TANK 1
 ORDER WALL 1
 GLOBAL BULK 0.0000  
 GLOBAL WALL 0.0000  
 LIMITING POTENTIAL 0.0000  
 ROUGHNESS CORRELATION 0.0000  

[MIXING]
;Tank ID  Model Fraction

[TIMES]
DURATION  24:00:00
HYDRAULIC TIMESTEP  00:05:00
QUALITY TIMESTEP  00:05:00
PATTERN TIMESTEP  00:05:00
PATTERN START  00:00:00
REPORT TIMESTEP  00:05:00
REPORT START  00:00:00
START CLOCKTIME  00:00:00 AM
RULE TIMESTEP  00:06:00
STATISTIC  NONE  

[REPORT]
SUMMARY  NO
PAGE  0

[OPTIONS]
UNITS  LPS  
HEADLOSS  H-W  
SPECIFIC GRAVITY  1
VISCOSITY  1
TRIALS  40
ACCURACY  0.01
CHECKFREQ  10
MAXCHECK  10
UNBALANCED  CONTINUE 10
PATTERN  DEM  
DEMAND MULTIPLIER  1
EMITTER EXPONENT  2
QUALITY  NONE  
DIFFUSIVITY  1
TOLERANCE  0.01

[COORDINATES]
;Node  X-Coord  Y-Coord  
20  98.220000000  10.000000000
30  98.220000000  71.560000000
110  49.330000000  10.000000000
70  72.220000000  30.670000000
60  72.220000000  71.560000000
90  55.560000000  53.110000000
100  51.560000000  30.890000000
40  98.220000000  94.220000000
50  42.440000000  94.220000000
80  38.220000000  73.780000000
150  31.560000000  52.890000000
140  8.220000000  66.670000000
170  -16.670000000  42.000000000
130  -3.330000000  21.110000000
160  8.220000000  36.220000000
120  16.000000000  8.670000000
55  31.530000000  110.590000000
75  11.230000000  102.560000000
115  -4.110000000  87.460000000
10  118.670000000  10.000000000
65  53.170000000  81.600000000
165  -1.910000000  42.790000000
265  -7.960000000  72.250000000

[VERTICES]
;Link  X-Coord  Y-Coord  

[LABELS]

[BACKDROP]
DIMENSIONS  -23.44  3.57  125.44  115.68
UNITS  NONE
OFFSET  0.00  0.00

[END]
